6
Lattice="0.0 0.0 0.0 0.0 0.0 0.0 0.0 0.0 0.0" Properties=species:S:1:pos:R:3:Z:I:1 pbc="F F F"
C      0.00000000       0.00000000       0.67540200        6 
C      0.00000000       0.00000000      -0.67540200        6 
Cl      0.00000000       1.44893900       1.58970100       17 
Cl      0.00000000      -1.44893900       1.58970100       17 
Cl      0.00000000      -1.44893900      -1.58970100       17 
Cl      0.00000000       1.44893900      -1.58970100       17 
